data_image0
_cell_length_a       10.3371
_cell_length_b       11.1671
_cell_length_c       11.8689
_cell_angle_alpha    94.257
_cell_angle_beta     107.004
_cell_angle_gamma    108.419

_symmetry_space_group_name_H-M    "P 1"
_symmetry_int_tables_number       1

loop_
  _symmetry_equiv_pos_as_xyz
  'x, y, z'

loop_
  _atom_site_label
  _atom_site_occupancy
  _atom_site_fract_x
  _atom_site_fract_y
  _atom_site_fract_z
  _atom_site_thermal_displace_type
  _atom_site_B_iso_or_equiv
  _atom_site_type_symbol
  C1       1.0000 0.30240  0.26130  0.34290  Biso   1.000  C
  C2       1.0000 0.40080  0.38260  0.42260  Biso   1.000  C
  C3       1.0000 0.36340  0.44540  0.50340  Biso   1.000  C
  H1       1.0000 0.27070  0.40940  0.50710  Biso   1.000  H
  C4       1.0000 0.54340  0.43820  0.41810  Biso   1.000  C
  C5       1.0000 0.79510  0.01000  0.08010  Biso   1.000  C
  C6       1.0000 0.64350  0.00570  0.03930  Biso   1.000  C
  C7       1.0000 0.59940  0.08500  0.10590  Biso   1.000  C
  C8       1.0000 0.54620  0.92590  0.93510  Biso   1.000  C
  H2       1.0000 0.57800  0.87710  0.88990  Biso   1.000  H
  C9       1.0000 0.96330  0.74480  0.99790  Biso   1.000  C
  C10      1.0000 0.97980  0.61840  0.99810  Biso   1.000  C
  C11      1.0000 0.99370  0.56290  0.09890  Biso   1.000  C
  H3       1.0000 0.98790  0.60520  0.16680  Biso   1.000  H
  C12      1.0000 0.98440  0.55080  0.89630  Biso   1.000  C
  C13      1.0000 0.18980  0.96520  0.45580  Biso   1.000  C
  H4       1.0000 0.28480  0.00800  0.46040  Biso   1.000  H
  C14      1.0000 0.15040  0.92700  0.55340  Biso   1.000  C
  H5       1.0000 0.20870  0.94530  0.63340  Biso   1.000  H
  C15      1.0000 0.96910  0.85460  0.38580  Biso   1.000  C
  C16      1.0000 0.81810  0.78600  0.30090  Biso   1.000  C
  H6       1.0000 0.81410  0.79890  0.22110  Biso   1.000  H
  H7       1.0000 0.75280  0.81890  0.32430  Biso   1.000  H
  H8       1.0000 0.79060  0.69570  0.30290  Biso   1.000  H
  N1       1.0000 0.60200  0.39100  0.33500  Biso   1.000  N
  N2       1.0000 0.68600  0.17000  0.20700  Biso   1.000  N
  N3       1.0000 0.98600  0.60200  0.78800  Biso   1.000  N
  N4       1.0000 0.07570  0.93380  0.35380  Biso   1.000  N
  N5       1.0000 0.00760  0.85570  0.50530  Biso   1.000  N
  O1       1.0000 0.17490  0.21130  0.35120  Biso   1.000  O
  O2       1.0000 0.33800  0.20570  0.27220  Biso   1.000  O
  O3       1.0000 0.87010  0.04180  0.18810  Biso   1.000  O
  O4       1.0000 0.84630  0.98160  0.00120  Biso   1.000  O
  O5       1.0000 0.99480  0.81390  0.10030  Biso   1.000  O
  O6       1.0000 0.92020  0.77940  0.90070  Biso   1.000  O
  Eu1      1.0000 0.09977  0.03499  0.17766  Biso   1.000  Eu
  C17      1.0000 0.69760  0.73870  0.65710  Biso   1.000  C
  C18      1.0000 0.59920  0.61740  0.57740  Biso   1.000  C
  C19      1.0000 0.63660  0.55460  0.49660  Biso   1.000  C
  H9       1.0000 0.72930  0.59060  0.49290  Biso   1.000  H
  C20      1.0000 0.45660  0.56180  0.58190  Biso   1.000  C
  C21      1.0000 0.20490  0.99000  0.91990  Biso   1.000  C
  C22      1.0000 0.35650  0.99430  0.96070  Biso   1.000  C
  C23      1.0000 0.40060  0.91500  0.89410  Biso   1.000  C
  C24      1.0000 0.45380  0.07410  0.06490  Biso   1.000  C
  H10      1.0000 0.42200  0.12290  0.11010  Biso   1.000  H
  C25      1.0000 0.03670  0.25520  0.00210  Biso   1.000  C
  C26      1.0000 0.02020  0.38160  0.00190  Biso   1.000  C
  C27      1.0000 0.00630  0.43710  0.90110  Biso   1.000  C
  H11      1.0000 0.01210  0.39480  0.83320  Biso   1.000  H
  C28      1.0000 0.01560  0.44920  0.10370  Biso   1.000  C
  C29      1.0000 0.81020  0.03480  0.54420  Biso   1.000  C
  H12      1.0000 0.71520  0.99200  0.53960  Biso   1.000  H
  C30      1.0000 0.84960  0.07300  0.44660  Biso   1.000  C
  H13      1.0000 0.79130  0.05470  0.36660  Biso   1.000  H
  C31      1.0000 0.03090  0.14540  0.61420  Biso   1.000  C
  C32      1.0000 0.18190  0.21400  0.69910  Biso   1.000  C
  H14      1.0000 0.18590  0.20110  0.77890  Biso   1.000  H
  H15      1.0000 0.24720  0.18110  0.67570  Biso   1.000  H
  H16      1.0000 0.20940  0.30430  0.69710  Biso   1.000  H
  N6       1.0000 0.39800  0.60900  0.66500  Biso   1.000  N
  N7       1.0000 0.31400  0.83000  0.79300  Biso   1.000  N
  N8       1.0000 0.01400  0.39800  0.21200  Biso   1.000  N
  N9       1.0000 0.92430  0.06620  0.64620  Biso   1.000  N
  N10      1.0000 0.99240  0.14430  0.49470  Biso   1.000  N
  O7       1.0000 0.82510  0.78870  0.64880  Biso   1.000  O
  O8       1.0000 0.66200  0.79430  0.72780  Biso   1.000  O
  O9       1.0000 0.12990  0.95820  0.81190  Biso   1.000  O
  O10      1.0000 0.15370  0.01840  0.99880  Biso   1.000  O
  O11      1.0000 0.00520  0.18610  0.89970  Biso   1.000  O
  O12      1.0000 0.07980  0.22060  0.09930  Biso   1.000  O
  Eu2      1.0000 0.90023  0.96501  0.82234  Biso   1.000  Eu
