# generated using pymatgen
data_HC3O2
_symmetry_space_group_name_H-M   'P 1'
_cell_length_a   7.82719732
_cell_length_b   7.82719732
_cell_length_c   7.82719732
_cell_angle_alpha   90.00000000
_cell_angle_beta   90.00000000
_cell_angle_gamma   90.00000000
_symmetry_Int_Tables_number   1
_chemical_formula_structural   HC3O2
_chemical_formula_sum   'H3 C9 O6'
_cell_volume   479.53338312
_cell_formula_units_Z   3
loop_
 _symmetry_equiv_pos_site_id
 _symmetry_equiv_pos_as_xyz
  1  'x, y, z'
loop_
 _atom_site_type_symbol
 _atom_site_label
 _atom_site_symmetry_multiplicity
 _atom_site_fract_x
 _atom_site_fract_y
 _atom_site_fract_z
 _atom_site_occupancy
  H  H0  1  -2.08665495  -1.27891755  -2.45013678  1
  O  O1  1  -2.50062036  -1.50777648  -2.29868601  1
  C  C2  1  -2.28185815  -1.30247656  -2.28185815  1
  O  O3  1  -1.85779602  -0.86495213  -2.29868601  1
  C  C4  1  -2.13377296  -1.22843396  -2.35253517  1
  O  O5  1  -2.50062036  -1.06688648  -1.85779602  1
  H  H6  1  -2.45013678  -1.27891755  -2.08665495  1
  C  C7  1  -2.28185815  -1.08371434  -2.06309594  1
  C  C8  1  -2.36599746  -0.99957503  -1.91501075  1
  C  C9  1  -2.13377296  -1.01303732  -2.13377296  1
  O  O10  1  -2.29868601  -0.86495213  -1.85779602  1
  O  O11  1  -2.29868601  -1.50777648  -2.50062036  1
  C  C12  1  -2.35253517  -1.22843396  -2.13377296  1
  C  C13  1  -1.91501075  -0.99957503  -2.36599746  1
  C  C14  1  -2.06309594  -1.08371434  -2.28185815  1
  H  H15  1  -2.08665495  -0.91543572  -2.08665495  1
  O  O16  1  -1.85779602  -1.06688648  -2.50062036  1
  C  C17  1  -2.36599746  -1.45056175  -2.36599746  1
